grid_TF_Wind/data/TYTFS2024_studyfiles/TYTFS2024_SV2033_V33.raw
0,   100.00, 33, 1, 1, 50.00     / PSS(R)E 33 RAW created by rawd33  FRI, OCT 03 2025  14:11
/ CASE: 2033;  SUMMER 01/07/2033; FORECAST STATEMENT 2023 -
/ NEXT PLANET;  11:20:31  FRIDAY, OCTOBER 03, 2025 RATE 25
    10,'F_M         ',  38.0000,1,  11,  11,   1,1.01157,   1.5133,1.10000,0.90000,1.10000,0.90000
    11,'FMN LOOP    ',  38.0000,1,  11,  11,   1,1.01207,   1.7131,1.10000,0.90000,1.10000,0.90000
    12,'BEDFORD ROW ',  38.0000,1,  11,  11,   1,1.02675,  -0.2872,1.10000,0.90000,1.10000,0.90000
    13,'M_R         ',  38.0000,1,  11,  11,   1,1.01828,  -1.0103,1.10000,0.90000,1.10000,0.90000
    14,'F_I         ',  38.0000,1,  11,  11,   1,1.01303,  -0.4309,1.10000,0.90000,1.10000,0.90000
    15,'I_M         ',  38.0000,1,  11,  11,   1,1.01382,  -0.2544,1.10000,0.90000,1.10000,0.90000
  1021,'ARDNACRUSHA ', 110.0000,1,   4,   4,   1,1.02968,   7.8333,1.10000,0.90000,1.10000,0.90000
  1031,'BALRUNTAGH  ', 110.0000,1,   7,   7,   1,1.02506,   1.5634,1.10000,0.90000,1.10000,0.90000
  1041,'AGHADA      ', 110.0000,1,  10,  10,   2,1.00602,  10.9850,1.10000,0.90000,1.10000,0.90000
  1042,'AGHADA      ', 220.0000,1,  10,  10,   2,1.00000,  13.2279,1.10000,0.90000,1.10000,0.90000
  1052,'AGHADA_B    ', 220.0000,1,  10,  10,   2,1.00000,  13.2279,1.10000,0.90000,1.10000,0.90000
  1061,'ARIGNA      ', 110.0000,1,   1,   1,   3,1.04408,   2.8433,1.10000,0.90000,1.10000,0.90000
  1062,'AGH_AT14    ', 220.0000,1,  10,  10,   9,1.00000,  13.2279,1.10000,0.90000,1.10000,0.90000
  1071,'AGANNYGAL   ', 110.0000,1,   4,   4,   3,1.04281,   5.5677,1.10000,0.90000,1.10000,0.90000
  1072,'AGHT2102    ', 220.0000,1,  10,  10,   2,1.00001,  13.2167,1.10000,0.90000,1.10000,0.90000
  1081,'AHANE       ', 110.0000,1,   8,   8,   2,1.02704,   7.7625,1.10000,0.90000,1.10000,0.90000
  1091,'ADAMSTOWN   ', 110.0000,1,  11,  11,   1,1.00705,  -0.3781,1.10000,0.90000,1.10000,0.90000
  1101,'ANNER       ', 110.0000,1,   8,   8,   6,1.00005,   6.8375,1.10000,0.90000,1.10000,0.90000
  1121,'ARKLOW      ', 110.0000,1,   9,   9,   3,1.01551,   5.2084,1.10000,0.90000,1.10000,0.90000
  1122,'ARKLOW      ', 220.0000,1,   9,   9,   3,1.00945,   5.7927,1.10000,0.90000,1.10000,0.90000
  1131,'ATHEA       ', 110.0000,1,   5,   5,  17,1.04724,   8.7798,1.10000,0.90000,1.10000,0.90000
  1141,'ATHLONE     ', 110.0000,1,   3,   3,   3,1.04419,   2.9765,1.10000,0.90000,1.10000,0.90000
  1151,'BALLINKNOCKA', 110.0000,1,   5,   5,  23,1.00474,  11.4199,1.10000,0.90000,1.10000,0.90000
  1161,'AUGHINISH   ', 110.0000,1,   5,   5,   2,1.00000,  11.8872,1.10000,0.90000,1.10000,0.90000
  1181,'ARVA        ', 110.0000,1,   7,   7,   3,1.03996,   1.2878,1.10000,0.90000,1.10000,0.90000
  1201,'ARTANE      ', 110.0000,1,  11,  11,   1,1.00783,   3.4282,1.10000,0.90000,1.10000,0.90000
  1211,'BALLYVOUSKIL', 110.0000,1,   5,   5,   3,1.00000,   9.9304,1.10000,0.90000,1.10000,0.90000
  1212,'BALLYVOUSKIL', 220.0000,1,   5,   5,   3,1.01076,   9.9276,1.10000,0.90000,1.10000,0.90000
  1221,'ATHY        ', 110.0000,1,  11,  11,   3,1.04053,   4.3918,1.10000,0.90000,1.10000,0.90000
  1231,'BALLYWATER  ', 110.0000,1,   9,   9,  17,1.02903,   6.8240,1.10000,0.90000,1.10000,0.90000
  1243,'CELTIC      ', 365.0000,2,  10,  10,   1,1.00422,  11.9049,1.10000,0.90000,1.10000,0.90000
  1244,'CELTIC      ', 380.0000,1,  10,  10,  49,1.00644,  11.9049,1.10000,0.90000,1.10000,0.90000
  1251,'BOOLTIAGH   ', 110.0000,1,   4,   4,  17,1.04656,   7.2692,1.10000,0.90000,1.10000,0.90000
  1261,'BALDONNELL  ', 110.0000,1,  11,  11,   7,0.99444,  -2.2697,1.10000,0.90000,1.10000,0.90000
  1271,'BALTRASNA   ', 110.0000,1,   7,   7,   2,1.00085,   1.2263,1.10000,0.90000,1.10000,0.90000
  1281,'BALLYLICKEY ', 110.0000,1,   6,   6,   3,1.02023,   8.5733,1.10000,0.90000,1.10000,0.90000
  1301,'BALLYBEG    ', 110.0000,1,   9,   9,   2,1.01064,   4.1606,1.10000,0.90000,1.10000,0.90000
  1311,'CORDAL      ', 110.0000,1,   5,   5,  17,1.00180,   9.6185,1.10000,0.90000,1.10000,0.90000
  1321,'BLAKE       ', 110.0000,1,  11,  11,   2,1.02161,   0.8487,1.10000,0.90000,1.10000,0.90000
  1331,'BLUNDELSTOWN', 110.0000,1,  11,  11,  23,1.00615,   0.4974,1.10000,0.90000,1.10000,0.90000
  1341,'BINBANE     ', 110.0000,1,   1,   1,   3,1.03233,  -0.2664,1.10000,0.90000,1.10000,0.90000
  1351,'BARODA      ', 110.0000,1,  11,  11,   6,1.02665,   0.9952,1.10000,0.90000,1.10000,0.90000
  1361,'BALLYDINE   ', 110.0000,1,   8,   8,   3,1.00116,   7.4688,1.10000,0.90000,1.10000,0.90000
  1371,'BARNAGEERAGH', 110.0000,1,  11,  11,   7,0.99670,   0.6668,1.10000,0.90000,1.10000,0.90000
  1381,'BARNAHELY   ', 110.0000,1,  10,  10,   2,1.00623,  10.4657,1.10000,0.90000,1.10000,0.90000
  1392,'CASTLELOST  ', 220.0000,1,   3,   3,   9,1.02270,   3.8791,1.10000,0.90000,1.10000,0.90000
  1401,'BELLACORICK ', 110.0000,1,   2,   2,   3,1.07098,   7.8743,1.10000,0.90000,1.10000,0.90000
  1411,'AIRTON      ', 110.0000,1,  11,  11,   7,1.01071,   0.8635,1.10000,0.90000,1.10000,0.90000
  1421,'BLACKROCK   ', 110.0000,1,  11,  11,   1,1.02056,   0.9671,1.10000,0.90000,1.10000,0.90000
  1431,'BALLYRAGGET ', 110.0000,1,   9,   9,   3,1.03591,   4.7278,1.10000,0.90000,1.10000,0.90000
  1441,'BANDON      ', 110.0000,1,   6,   6,   2,1.01144,   9.2193,1.10000,0.90000,1.10000,0.90000
  1451,'CLOGHRAN    ', 110.0000,1,  11,  11,   7,0.99668,   0.6738,1.10000,0.90000,1.10000,0.90000
  1461,'BARRYMORE   ', 110.0000,1,   8,   8,   2,1.00753,   8.7201,1.10000,0.90000,1.10000,0.90000
  1471,'BELCAMP     ', 110.0000,1,  11,  11,   7,0.98661,   0.7892,1.10000,0.90000,1.10000,0.90000
  1472,'BELCAMP     ', 220.0000,1,  11,  11,   7,0.99940,   4.6607,1.10000,0.90000,1.10000,0.90000
  1474,'BELCAMP     ', 380.0000,1,  11,  11,   7,1.05338,   5.2470,1.10000,0.90000,1.10000,0.90000
  1481,'BUTLERSTOWN ', 110.0000,1,  12,  12,   3,1.01123,   8.9193,1.10000,0.90000,1.10000,0.90000
  1491,'DEENES      ', 110.0000,1,   7,   7,   1,1.00284,   1.6005,1.10000,0.90000,1.10000,0.90000
  1501,'BRINNY      ', 110.0000,1,   6,   6,   6,1.01132,   9.2105,1.10000,0.90000,1.10000,0.90000
  1511,'CLOGHBOOLA  ', 110.0000,1,   5,   5,  17,1.04914,   8.7488,1.10000,0.90000,1.10000,0.90000
  1521,'BOGTOWN     ', 110.0000,1,  11,  11,  17,1.03833,   1.0063,1.10000,0.90000,1.10000,0.90000
  1522,'CLONEE      ', 220.0000,1,  11,  11,   7,1.00518,   4.2314,1.10000,0.90000,1.10000,0.90000
  1531,'BALLYADAM   ', 110.0000,1,   9,   9,   3,1.00430,  10.1439,1.10000,0.90000,1.10000,0.90000
  1541,'BANOGE      ', 110.0000,1,   9,   9,   3,1.02275,   6.0292,1.10000,0.90000,1.10000,0.90000
  1551,'BOGGERAGH   ', 110.0000,1,   5,   5,  17,1.01713,   9.5020,1.10000,0.90000,1.10000,0.90000
  1561,'COOLDERRIG  ', 110.0000,1,  11,  11,   7,1.00692,  -0.4674,1.10000,0.90000,1.10000,0.90000
  1571,'ARDNAGAPPARY', 110.0000,1,   1,   1,   3,1.03144,  -1.1165,1.10000,0.90000,1.10000,0.90000
  1581,'CABRA       ', 110.0000,1,  11,  11,   1,1.00760,   3.4116,1.10000,0.90000,1.10000,0.90000
  1591,'CLONFAD     ', 110.0000,1,  11,  11,   3,1.03330,   0.2694,1.10000,0.90000,1.10000,0.90000
  1601,'CLASHAVOON  ', 110.0000,1,   5,   5,   3,1.01636,   9.5108,1.10000,0.90000,1.10000,0.90000
  1602,'CLASHAVOON  ', 220.0000,1,   5,   5,   3,1.01081,  10.2310,1.10000,0.90000,1.10000,0.90000
  1611,'CLONKEEN    ', 110.0000,1,   5,   5,   3,1.02535,   8.4676,1.10000,0.90000,1.10000,0.90000
  1621,'COOLROE     ', 110.0000,1,  10,  10,   2,1.01183,   9.5220,1.10000,0.90000,1.10000,0.90000
  1631,'CORDERRY    ', 110.0000,1,   1,   1,   3,1.04193,   2.8050,1.10000,0.90000,1.10000,0.90000
  1641,'CASHLA      ', 110.0000,1,   2,   2,   2,1.05389,   6.5436,1.10000,0.90000,1.10000,0.90000
  1642,'CASHLA      ', 220.0000,1,   2,   2,   2,1.03788,   7.9553,1.10000,0.90000,1.10000,0.90000
  1651,'CLAHANE     ', 110.0000,1,   5,   5,  17,1.03765,   8.0121,1.10000,0.90000,1.10000,0.90000
  1661,'CASTLEBAR   ', 110.0000,1,   2,   2,   3,1.05592,   5.9929,1.10000,0.90000,1.10000,0.90000
  1671,'KILCUMBER   ', 110.0000,1,  11,  11,  17,1.03585,   1.4449,1.10000,0.90000,1.10000,0.90000
  1681,'CARRIGADROHI', 110.0000,1,   6,   6,  21,1.01541,   9.4776,1.10000,0.90000,1.10000,0.90000
  1691,'CENTRAL PARK', 110.0000,1,  11,  11,   1,1.00672,   2.9927,1.10000,0.90000,1.10000,0.90000
  1701,'CATH_FALL   ', 110.0000,1,   1,   1,   3,1.02794,   1.1079,1.10000,0.90000,1.10000,0.90000
  1711,'CROMCASTLE  ', 110.0000,1,  11,  11,   1,1.01902,   3.0737,1.10000,0.90000,1.10000,0.90000
  1721,'CAHIR       ', 110.0000,1,   8,   8,   3,1.00594,   6.7418,1.10000,0.90000,1.10000,0.90000
  1731,'CROMCASTLE  ', 110.0000,1,  11,  11,   1,1.01902,   3.0737,1.10000,0.90000,1.10000,0.90000
  1741,'CARRICKMINES', 110.0000,1,  11,  11,   2,1.00647,   3.0217,1.10000,0.90000,1.10000,0.90000
  1742,'CARRICKMINES', 220.0000,1,  11,  11,   2,1.00131,   3.8205,1.10000,0.90000,1.10000,0.90000
  1751,'COOMNACLOHY ', 110.0000,1,   5,   5,   1,1.00075,   9.9100,1.10000,0.90000,1.10000,0.90000
  1761,'CLIFF       ', 110.0000,1,   1,   1,  13,1.02796,   1.1075,1.10000,0.90000,1.10000,0.90000
  1781,'CASTLEFARM  ', 110.0000,1,   5,   5,   6,0.99946,  11.8664,1.10000,0.90000,1.10000,0.90000
  1791,'BRACKLONE   ', 110.0000,1,  11,  11,   2,1.03443,   2.2403,1.10000,0.90000,1.10000,0.90000
  1801,'COOKSTOWN   ', 110.0000,1,  11,  11,   2,1.00234,   2.7450,1.10000,0.90000,1.10000,0.90000
  1810,'DARNDALE    ', 110.0000,1,  11,  11,   7,0.98622,   0.7153,1.10000,0.90000,1.10000,0.90000
  1811,'CLUTTERLAND ', 110.0000,1,  11,  11,   7,0.99448,  -2.2500,1.10000,0.90000,1.10000,0.90000
  1821,'CLOON       ', 110.0000,1,   2,   2,   2,1.05505,   5.3820,1.10000,0.90000,1.10000,0.90000
  1831,'SCREEB      ', 110.0000,1,   2,   2,   3,1.07685,   5.2229,1.10000,0.90000,1.10000,0.90000
  1841,'CRANE       ', 110.0000,1,   9,   9,   3,1.02739,   6.8555,1.10000,0.90000,1.10000,0.90000
  1851,'CHERRYWOOD  ', 110.0000,1,  11,  11,   6,1.00636,   2.9912,1.10000,0.90000,1.10000,0.90000
  1861,'CARRICK ON S', 110.0000,1,   3,   3,   3,1.04662,   2.9482,1.10000,0.90000,1.10000,0.90000
  1871,'COLLEGE PARK', 110.0000,1,  11,  11,   1,0.99722,   0.7479,1.10000,0.90000,1.10000,0.90000
  1881,'CHARLEVILLE ', 110.0000,1,   5,   5,   2,1.02264,   7.8188,1.10000,0.90000,1.10000,0.90000
  1901,'CARLOW      ', 110.0000,1,   9,   9,   3,1.04436,   4.9703,1.10000,0.90000,1.10000,0.90000
  1911,'CUILLEEN    ', 110.0000,1,   3,   3,   9,1.04423,   2.9755,1.10000,0.90000,1.10000,0.90000
  1921,'COW CROSS   ', 110.0000,1,  10,  10,   2,1.00664,  10.4506,1.10000,0.90000,1.10000,0.90000
  1931,'CUNGHILL    ', 110.0000,1,   2,   2,   3,1.05889,   3.3875,1.10000,0.90000,1.10000,0.90000
  1941,'CUSHALING   ', 110.0000,1,  11,  11,  12,1.03585,   1.4449,1.10000,0.90000,1.10000,0.90000
  1951,'CARROWBEG   ', 110.0000,1,   2,   2,   3,1.05537,   5.5413,1.10000,0.90000,1.10000,0.90000
  1961,'CASTLEVIEW  ', 110.0000,1,  10,  10,   2,1.00666,  10.0946,1.10000,0.90000,1.10000,0.90000
  1971,'COOMAGEARLAH', 110.0000,1,   5,   5,  17,1.00177,   9.8511,1.10000,0.90000,1.10000,0.90000
  1981,'CORRACLASSY ', 110.0000,1,   1,   1,   3,1.02647,   0.6356,1.10000,0.90000,1.10000,0.90000
  1991,'CASTLEDOCKRE', 110.0000,1,   9,   9,  17,1.02472,   7.1765,1.10000,0.90000,1.10000,0.90000
  2001,'CULLENAGH   ', 110.0000,1,  12,  12,   3,1.01083,   9.0708,1.10000,0.90000,1.10000,0.90000
  2002,'CULLENAGH   ', 220.0000,1,  12,  12,   3,1.00290,  10.8778,1.10000,0.90000,1.10000,0.90000
  2011,'CORBETSTOWN ', 110.0000,1,  11,  11,  23,1.03053,   0.6020,1.10000,0.90000,1.10000,0.90000
  2021,'CITY WEST   ', 110.0000,1,  11,  11,   2,1.00299,  -0.7768,1.10000,0.90000,1.10000,0.90000
  2041,'CORDUFF     ', 110.0000,1,  11,  11,   1,0.99736,   0.8047,1.10000,0.90000,1.10000,0.90000
  2042,'CORDUFF     ', 220.0000,1,  11,  11,   1,1.00042,   4.5599,1.10000,0.90000,1.10000,0.90000
  2052,'CORDUFFB    ', 220.0000,1,  11,  11,   1,1.00042,   4.5599,1.10000,0.90000,1.10000,0.90000
  2061,'CASTLETREASU', 110.0000,1,  10,  10,  23,1.01009,  10.5322,1.10000,0.90000,1.10000,0.90000
  2072,'CRUISERATH  ', 220.0000,1,  11,  11,   7,1.00000,   4.5665,1.10000,0.90000,1.10000,0.90000
  2090,'KNOCKRANNY A', 110.0000,1,   2,   2,  25,1.05575,   6.2466,1.10000,0.90000,1.10000,0.90000
  2091,'KNOCKRANNY  ', 110.0000,1,   2,   2,   3,1.07372,   5.6768,1.10000,0.90000,1.10000,0.90000
  2101,'DUNDALK     ', 110.0000,1,   7,   7,   3,1.02943,   2.2174,1.10000,0.90000,1.10000,0.90000
  2111,'UGGOOL      ', 110.0000,1,   2,   2,  17,1.05583,   6.2458,1.10000,0.90000,1.10000,0.90000
  2121,'DRUMLINE    ', 110.0000,1,   4,   4,   2,1.03690,   7.0724,1.10000,0.90000,1.10000,0.90000
  2131,'DROMADA     ', 110.0000,1,   5,   5,  17,1.04742,   8.7777,1.10000,0.90000,1.10000,0.90000
  2141,'DUNGARVAN   ', 110.0000,1,  12,  12,   3,1.01111,   8.9137,1.10000,0.90000,1.10000,0.90000
  2151,'DROMBEG     ', 110.0000,1,   5,   5,   3,1.03664,   8.3898,1.10000,0.90000,1.10000,0.90000
  2161,'DOON        ', 110.0000,1,   8,   8,   3,1.00096,   6.8806,1.10000,0.90000,1.10000,0.90000
  2171,'KNOCKALOUGH ', 110.0000,1,   2,   2,  18,1.07458,   5.6685,1.10000,0.90000,1.10000,0.90000
  2181,'DRYBRIDGE   ', 110.0000,1,   7,   7,   2,1.00451,   1.9331,1.10000,0.90000,1.10000,0.90000
  2191,'DONORE      ', 110.0000,1,   7,   7,   1,1.00160,   2.0643,1.10000,0.90000,1.10000,0.90000
  2202,'DUNSTOWN    ', 220.0000,1,  11,  11,   1,1.02200,   3.8356,1.10000,0.90000,1.10000,0.90000
  2204,'DUNSTOWN    ', 380.0000,1,  11,  11,   1,1.04234,   5.4037,1.10000,0.90000,1.10000,0.90000
  2211,'DENNISTOWN  ', 110.0000,1,   9,   9,  23,1.03127,   7.1863,1.10000,0.90000,1.10000,0.90000
  2212,'DUNSTOWN    ', 220.0000,1,  11,  11,   1,1.04234,   5.4037,1.10000,0.90000,1.10000,0.90000
  2221,'DUNMANWAY   ', 110.0000,1,   6,   6,   3,1.01648,   8.9949,1.10000,0.90000,1.10000,0.90000
  2225,'DUNMANWAY   ', 110.0000,1,   6,   6,   3,1.01648,   8.9949,1.10000,0.90000,1.10000,0.90000
  2231,'DERRYBRIEN  ', 110.0000,1,   4,   4,  17,1.04285,   5.5668,1.10000,0.90000,1.10000,0.90000
  2241,'DALLOW      ', 110.0000,1,   8,   8,   3,1.03766,   3.9355,1.10000,0.90000,1.10000,0.90000
  2251,'DARDISTOWN  ', 110.0000,1,  11,  11,   6,1.01896,   3.0847,1.10000,0.90000,1.10000,0.90000
  2261,'DERRYIRON   ', 110.0000,1,  11,  11,  11,1.03053,   0.6021,1.10000,0.90000,1.10000,0.90000
  2271,'DERRYLAHAN  ', 110.0000,1,   3,   3,  23,1.03703,   4.3385,1.10000,0.90000,1.10000,0.90000
  2281,'DALTON_A1   ', 110.0000,1,   2,   2,   3,1.05658,   5.7922,1.10000,0.90000,1.10000,0.90000
  2301,'DUNFIRTH    ', 110.0000,1,  11,  11,   2,1.01924,   0.0611,1.10000,0.90000,1.10000,0.90000
  2312,'DERRYGREENAG', 220.0000,1,  11,  11,   1,1.05059,   6.9642,1.10000,0.90000,1.10000,0.90000
  2321,'DRUMKEEN    ', 110.0000,1,   1,   1,   3,1.03531,  -1.5423,1.10000,0.90000,1.10000,0.90000
  2331,'FERRY VIEW  ', 110.0000,1,   2,   2,  21,1.07375,   5.6765,1.10000,0.90000,1.10000,0.90000
  2341,'CAHERHURLY  ', 110.0000,1,   4,   4,   1,1.03242,   7.8007,1.10000,0.90000,1.10000,0.90000
  2351,'EFFERNOGE   ', 110.0000,1,   9,   9,   1,1.02642,   6.9641,1.10000,0.90000,1.10000,0.90000
  2361,'ENNIS       ', 110.0000,1,   4,   4,   2,1.04603,   6.6466,1.10000,0.90000,1.10000,0.90000
  2391,'KILL HILL   ', 110.0000,1,   8,   8,  17,1.00336,   6.0546,1.10000,0.90000,1.10000,0.90000
  2401,'MOUNT LUCAS ', 110.0000,1,  11,  11,  17,1.03756,   1.0268,1.10000,0.90000,1.10000,0.90000
  2421,'CORKAGH     ', 110.0000,1,  11,  11,   7,0.99441,  -2.2770,1.10000,0.90000,1.10000,0.90000
  2441,'BELLEWSTOWN ', 110.0000,1,   7,   7,   1,1.00046,   2.6987,1.10000,0.90000,1.10000,0.90000
  2481,'FASS EAST   ', 110.0000,1,  11,  11,   2,1.00135,   2.7524,1.10000,0.90000,1.10000,0.90000
  2491,'FASS WEST   ', 110.0000,1,  11,  11,   2,1.00141,   2.7597,1.10000,0.90000,1.10000,0.90000
  2521,'FLAGFORD    ', 110.0000,1,   2,   2,   3,1.04764,   3.0518,1.10000,0.90000,1.10000,0.90000
  2522,'FLAGFORD    ', 220.0000,1,   2,   2,   3,1.03900,   4.4655,1.10000,0.90000,1.10000,0.90000
  2541,'FRN ST A    ', 110.0000,1,  11,  11,   1,1.02115,   0.9591,1.10000,0.90000,1.10000,0.90000
  2551,'FRN ST B    ', 110.0000,1,  11,  11,   1,1.01201,   0.9901,1.10000,0.90000,1.10000,0.90000
  2561,'FIN_URBAN   ', 110.0000,1,  11,  11,   1,1.00794,   3.4988,1.10000,0.90000,1.10000,0.90000
  2562,'FINGLAS     ', 220.0000,1,  11,  11,   1,1.00000,   4.6874,1.10000,0.90000,1.10000,0.90000
  2563,'FINGLAS220B ', 220.0000,1,  11,  11,   1,1.00000,   4.6874,1.10000,0.90000,1.10000,0.90000
  2571,'FIN_RURAL   ', 110.0000,1,  11,  11,   1,1.01811,   3.1697,1.10000,0.90000,1.10000,0.90000
  2581,'FINGLAS B5  ', 110.0000,1,  11,  11,   1,0.99743,   0.7363,1.10000,0.90000,1.10000,0.90000
  2591,'FORTUNESTOWN', 110.0000,1,  11,  11,   1,1.00275,  -0.7870,1.10000,0.90000,1.10000,0.90000
  2601,'FIRLOUGH    ', 110.0000,1,   2,   2,   3,1.07486,   4.3689,1.10000,0.90000,1.10000,0.90000
  2641,'GRAHOMICK   ', 110.0000,1,   9,   9,  23,1.03183,   7.1714,1.10000,0.90000,1.10000,0.90000
  2651,'GARRINTAGGAR', 110.0000,1,   3,   3,  17,1.03759,   4.4250,1.10000,0.90000,1.10000,0.90000
  2661,'AGHALEAGUE  ', 110.0000,1,   1,   1,  23,1.04025,   2.8231,1.10000,0.90000,1.10000,0.90000
  2671,'GARVAGH     ', 110.0000,1,   1,   1,   3,1.04025,   2.8231,1.10000,0.90000,1.10000,0.90000
  2681,'GILRA       ', 110.0000,1,   3,   3,   6,1.04475,   2.8603,1.10000,0.90000,1.10000,0.90000
  2691,'GARBALLAGH  ', 110.0000,1,   7,   7,  23,1.00284,   2.4191,1.10000,0.90000,1.10000,0.90000
  2701,'GLASMORE    ', 110.0000,1,  11,  11,   2,1.01240,   2.5709,1.10000,0.90000,1.10000,0.90000
  2712,'GLANSILLAGH ', 220.0000,1,   5,   5,   1,1.04117,   8.7616,1.10000,0.90000,1.10000,0.90000
  2721,'GRIFFINRATH ', 110.0000,1,  11,  11,   2,1.02103,   1.4558,1.10000,0.90000,1.10000,0.90000
  2731,'GLANLEE     ', 110.0000,1,   5,   5,  17,1.00179,   9.8504,1.10000,0.90000,1.10000,0.90000
  2741,'GREAT ISLAND', 110.0000,1,   9,   9,   3,1.01316,   9.3309,1.10000,0.90000,1.10000,0.90000
  2742,'GREAT ISLAND', 220.0000,1,   9,   9,   3,1.00000,  11.2025,1.10000,0.90000,1.10000,0.90000
  2761,'GRANGE      ', 110.0000,1,  11,  11,   1,1.01889,   3.0470,1.10000,0.90000,1.10000,0.90000
  2771,'GARROW      ', 110.0000,1,   5,   5,  17,1.00047,   9.9076,1.10000,0.90000,1.10000,0.90000
  2781,'GALWAY      ', 110.0000,1,   2,   2,   1,1.05807,   6.2261,1.10000,0.90000,1.10000,0.90000
  2791,'GALLANSTOWN ', 110.0000,1,  11,  11,  23,0.99841,   1.3657,1.10000,0.90000,1.10000,0.90000
  2801,'GOLAGH      ', 110.0000,1,   1,   1,  17,1.03847,  -0.2585,1.10000,0.90000,1.10000,0.90000
  2821,'GORTAWEE    ', 110.0000,1,   1,   1,   3,1.02572,   0.4228,1.10000,0.90000,1.10000,0.90000
  2841,'GORMAN      ', 110.0000,1,   7,   7,   3,1.00771,   2.0344,1.10000,0.90000,1.10000,0.90000
  2842,'GORMAN      ', 220.0000,1,   7,   7,   3,1.01328,   3.0383,1.10000,0.90000,1.10000,0.90000
  2852,'GLANAGOW    ', 220.0000,1,  10,  10,   9,1.00077,  13.1105,1.10000,0.90000,1.10000,0.90000
  2861,'GRANGE CASTL', 110.0000,1,  11,  11,   1,1.00700,  -0.4415,1.10000,0.90000,1.10000,0.90000
  2870,'CLOGHER     ', 110.0000,1,   1,   1,   3,1.03845,  -0.2581,1.10000,0.90000,1.10000,0.90000
  2871,'CLOGHER     ', 110.0000,1,   1,   1,   3,1.03845,  -0.2581,1.10000,0.90000,1.10000,0.90000
  2881,'GLENLARA    ', 110.0000,1,   5,   5,   3,1.01891,   7.4012,1.10000,0.90000,1.10000,0.90000
  2892,'GLENCLOOSAGH', 220.0000,1,   5,   5,   3,1.04136,   8.6823,1.10000,0.90000,1.10000,0.90000
  2921,'HARRISTOWN  ', 110.0000,1,  11,  11,  23,1.02812,   0.2196,1.10000,0.90000,1.10000,0.90000
  2931,'WALTERSTOWN ', 110.0000,1,  11,  11,   1,1.00825,   0.0491,1.10000,0.90000,1.10000,0.90000
  2941,'HAROLDS CROS', 110.0000,1,  11,  11,   1,1.02116,   0.9686,1.10000,0.90000,1.10000,0.90000
  2951,'HEUSTON SQUA', 110.0000,1,  11,  11,   1,1.01200,   0.9966,1.10000,0.90000,1.10000,0.90000
  2962,'HUNTSTOWN   ', 220.0000,1,  11,  11,   9,0.99964,   4.7405,1.10000,0.90000,1.10000,0.90000
  2972,'HUNTSTOWN 2 ', 220.0000,1,  11,  11,   9,0.99988,   4.7725,1.10000,0.90000,1.10000,0.90000
...
0 / END OF BUS DATA, BEGIN LOAD DATA
    10,'LD',1,  11,   1,    23.380,    -1.940,     0.000,     0.000,     0.000,     0.000,   2,1,0
    11,'LD',1,  11,   1,    20.970,    -1.930,     0.000,     0.000,     0.000,     0.000,   2,1,0
    12,'LD',1,  11,   1,    15.150,     0.340,     0.000,     0.000,     0.000,     0.000,   2,1,0
    13,'LD',1,  11,   1,    23.430,    -0.800,     0.000,     0.000,     0.000,     0.000,   2,1,0
    14,'LD',1,  11,   1,    17.950,     1.420,     0.000,     0.000,     0.000,     0.000,   2,1,0
    15,'LD',1,  11,   1,    18.050,     0.100,     0.000,     0.000,     0.000,     0.000,   2,1,0
  1101,'I ',1,   8,   2,    14.000,     6.900,     0.000,     0.000,     0.000,     0.000,   5,0,0
  1101,'MI',0,   8,   2,     1.330,     0.100,     0.000,     0.000,     0.000,     0.000,   5,0,0
  4341,'I ',1,  10,   2,     0.300,     0.100,     0.000,     0.000,     0.000,     0.000,   5,0,0
 10204,'LD',1,   4,   1,    23.100,     1.420,     0.000,     0.000,     0.000,     0.000,   2,1,0
 10205,'LD',1,   4,   1,     9.970,     1.000,     0.000,     0.000,     0.000,     0.000,   2,1,0
 10602,'LD',1,   1,   1,     1.200,    -0.560,     0.000,     0.000,     0.000,     0.000,   2,1,0
 10801,'LD',1,   8,   1,     1.440,    -0.570,     0.000,     0.000,     0.000,     0.000,   2,1,0
 10902,'I ',1,  11,   2,     9.500,     3.120,     0.000,     0.000,     0.000,     0.000,   5,0,0
 10902,'LD',1,  11,   1,     2.990,     0.500,     0.000,     0.000,     0.000,     0.000,   2,1,0
 10902,'MI',0,  11,   2,     0.500,     0.000,     0.000,     0.000,     0.000,     0.000,   5,0,0
 11201,'LD',1,   9,   1,     2.350,    -0.020,     0.000,     0.000,     0.000,     0.000,   2,1,0
 11204,'LD',1,   9,   1,    19.940,   -10.450,     0.000,     0.000,     0.000,     0.000,   2,1,0
 11404,'LD',1,   3,   1,    25.630,    -4.920,     0.000,     0.000,     0.000,     0.000,   2,1,0
 12001,'LD',1,  11,   1,     3.680,    -0.710,     0.000,     0.000,     0.000,     0.000,   2,1,0
 12201,'LD',1,  11,   1,     6.260,     0.560,     0.000,     0.000,     0.000,     0.000,   2,1,0
 12702,'LD',1,   7,   1,     4.980,    -1.410,     0.000,     0.000,     0.000,     0.000,   2,1,0
 12804,'LD',1,   6,   1,     5.180,    -3.460,     0.000,     0.000,     0.000,     0.000,   2,1,0
 13001,'LD',1,   9,   1,     4.430,    -0.940,     0.000,     0.000,     0.000,     0.000,   2,1,0
 13204,'LD',1,  11,   1,     7.040,    -0.090,     0.000,     0.000,     0.000,     0.000,   2,1,0
 13302,'I ',1,  11,   2,     9.500,     3.120,     0.000,     0.000,     0.000,     0.000,   5,0,0
 13302,'MI',0,  11,   2,     6.000,     1.880,     0.000,     0.000,     0.000,     0.000,   5,0,0
 13404,'LD',1,   1,   1,     7.020,    -0.670,     0.000,     0.000,     0.000,     0.000,   2,1,0
 13501,'I ',1,  11,   2,     5.260,     0.820,     0.000,     0.000,     0.000,     0.000,   5,0,0
 13501,'MI',0,  11,   2,     4.240,     2.180,     0.000,     0.000,     0.000,     0.000,   5,0,0
 13601,'I ',1,   8,   2,     5.990,     1.670,     0.000,     0.000,     0.000,     0.000,   5,0,0
 13601,'MI',0,   8,   2,     3.220,     1.330,     0.000,     0.000,     0.000,     0.000,   5,0,0
 13604,'LD',1,   8,   1,     3.440,     0.430,     0.000,     0.000,     0.000,     0.000,   2,1,0
 13702,'I ',1,  11,   2,    35.780,     3.940,     0.000,     0.000,     0.000,     0.000,   5,0,0
 13702,'MI',0,  11,   2,     5.960,     0.650,     0.000,     0.000,     0.000,     0.000,   5,0,0
 13802,'LD',1,  10,   1,    19.900,     3.840,     0.000,     0.000,     0.000,     0.000,   2,1,0
 13804,'LD',1,  10,   1,     6.630,     1.280,     0.000,     0.000,     0.000,     0.000,   2,1,0
 13812,'LD',1,  10,   1,     3.680,     0.710,     0.000,     0.000,     0.000,     0.000,   2,1,0
 14004,'LD',1,   2,   1,     1.920,    -0.400,     0.000,     0.000,     0.000,     0.000,   2,1,0
 14102,'I ',1,  11,   2,    59.940,     2.680,     0.000,     0.000,     0.000,     0.000,   5,0,0
 14102,'MI',0,  11,   2,     6.560,     0.300,     0.000,     0.000,     0.000,     0.000,   5,0,0
 14204,'LD',1,  11,   1,    20.070,     6.280,     0.000,     0.000,     0.000,     0.000,   2,1,0
 14304,'LD',1,   9,   1,     8.030,     1.740,     0.000,     0.000,     0.000,     0.000,   2,1,0
 14401,'LD',1,   6,   1,     3.410,     0.160,     0.000,     0.000,     0.000,     0.000,   2,1,0
 14404,'LD',1,   6,   1,    14.990,    -0.350,     0.000,     0.000,     0.000,     0.000,   2,1,0
 14502,'I ',1,  11,   2,    71.000,     9.500,     0.000,     0.000,     0.000,     0.000,   5,0,0
 14502,'MI',0,  11,   2,    14.500,     2.050,     0.000,     0.000,     0.000,     0.000,   5,0,0
 14604,'LD',1,   8,   1,    14.230,    -2.510,     0.000,     0.000,     0.000,     0.000,   2,1,0
 14804,'LD',1,  12,   1,    14.790,    -0.210,     0.000,     0.000,     0.000,     0.000,   2,1,0
 15001,'I ',1,   6,   2,     3.950,     0.980,     0.000,     0.000,     0.000,     0.000,   5,0,0
 15001,'MI',0,   6,   2,     2.220,     1.020,     0.000,     0.000,     0.000,     0.000,   5,0,0
 15202,'I ',1,  11,   2,   134.720,     8.530,     0.000,     0.000,     0.000,     0.000,   5,0,0
 15202,'MI',0,  11,   2,    14.970,     0.950,     0.000,     0.000,     0.000,     0.000,   5,0,0
 15402,'LD',1,   9,   1,     2.990,    -0.010,     0.000,     0.000,     0.000,     0.000,   2,1,0
 15602,'I ',1,  11,   2,    38.000,     0.000,     0.000,     0.000,     0.000,     0.000,   5,0,0
 15602,'MI',0,  11,   2,     7.000,     0.000,     0.000,     0.000,     0.000,     0.000,   5,0,0
 15704,'LD',1,   1,   1,     2.990,     0.700,     0.000,     0.000,     0.000,     0.000,   2,1,0
 15801,'LD',1,  11,   1,     3.860,     1.220,     0.000,     0.000,     0.000,     0.000,   2,1,0
 16202,'LD',1,  10,   1,     4.740,     0.000,     0.000,     0.000,     0.000,     0.000,   2,1,0
 16604,'LD',1,   2,   1,     8.970,     0.000,     0.000,     0.000,     0.000,     0.000,   2,1,0
 16901,'LD',1,  11,   1,     4.180,    -0.900,     0.000,     0.000,     0.000,     0.000,   2,1,0
 17004,'LD',1,   1,   1,     5.980,     1.000,     0.000,     0.000,     0.000,     0.000,   2,1,0
 17204,'LD',1,   8,   1,     9.490,    -0.110,     0.000,     0.000,     0.000,     0.000,   2,1,0
 17404,'LD',1,  11,   1,    22.300,     1.400,     0.000,     0.000,     0.000,     0.000,   2,1,0
 17802,'I ',1,   5,   2,    50.800,    24.520,     0.000,     0.000,     0.000,     0.000,   5,0,0
 18001,'LD',1,  11,   1,     7.270,     0.500,     0.000,     0.000,     0.000,     0.000,   2,1,0
 18004,'LD',1,  11,   1,    15.950,     4.270,     0.000,     0.000,     0.000,     0.000,   2,1,0
 18101,'I ',1,  11,   2,   121.000,    13.230,     0.000,     0.000,     0.000,     0.000,   5,0,0
 18101,'MI',0,  11,   2,    20.150,     2.300,     0.000,     0.000,     0.000,     0.000,   5,0,0
 18102,'I ',1,  11,   2,   115.770,     7.330,     0.000,     0.000,     0.000,     0.000,   5,0,0
 18102,'MI',0,  11,   2,     8.980,     0.570,     0.000,     0.000,     0.000,     0.000,   5,0,0
 18204,'LD',1,   2,   1,    11.850,    -1.110,     0.000,     0.000,     0.000,     0.000,   2,1,0
 18304,'LD',1,   2,   1,     6.980,    -2.840,     0.000,     0.000,     0.000,     0.000,   2,1,0
 18402,'LD',1,   9,   1,     4.160,    -0.400,     0.000,     0.000,     0.000,     0.000,   2,1,0
 18404,'LD',1,   9,   1,     7.520,    -1.630,     0.000,     0.000,     0.000,     0.000,   2,1,0
 18504,'LD',1,  11,   1,     5.980,     0.000,     0.000,     0.000,     0.000,     0.000,   2,1,0
 18604,'LD',1,   3,   1,     8.990,    -0.020,     0.000,     0.000,     0.000,     0.000,   2,1,0
 18701,'LD',1,  11,   1,    21.490,     1.630,     0.000,     0.000,     0.000,     0.000,   2,1,0
 18804,'LD',1,   5,   1,     5.720,    -0.640,     0.000,     0.000,     0.000,     0.000,   2,1,0
 19004,'LD',1,   9,   1,    22.220,    -6.230,     0.000,     0.000,     0.000,     0.000,   2,1,0
 19204,'LD',1,  10,   1,     3.990,     0.050,     0.000,     0.000,     0.000,     0.000,   2,1,0
 19504,'LD',1,   2,   1,     9.630,    -0.690,     0.000,     0.000,     0.000,     0.000,   2,1,0
 19601,'LD',1,  10,   1,    14.440,     1.840,     0.000,     0.000,     0.000,     0.000,   2,1,0
 20201,'LD',1,  11,   1,    10.840,     3.560,     0.000,     0.000,     0.000,     0.000,   2,1,0
 20402,'LD',1,  11,   1,    11.390,     1.210,     0.000,     0.000,     0.000,     0.000,   2,1,0
 20701,'I ',1,  11,   2,   171.830,     7.690,     0.000,     0.000,     0.000,     0.000,   5,0,0
 20701,'MI',0,  11,   2,    67.920,     3.040,     0.000,     0.000,     0.000,     0.000,   5,0,0
 21004,'LD',1,   7,   1,    18.870,    -0.180,     0.000,     0.000,     0.000,     0.000,   2,1,0
 21204,'LD',1,   4,   1,     9.240,     0.200,     0.000,     0.000,     0.000,     0.000,   2,1,0
 21404,'LD',1,  12,   1,    14.840,    -2.260,     0.000,     0.000,     0.000,     0.000,   2,1,0
 21604,'LD',1,   8,   1,    10.240,     0.010,     0.000,     0.000,     0.000,     0.000,   2,1,0
 21804,'LD',1,   7,   1,    27.870,    -7.330,     0.000,     0.000,     0.000,     0.000,   2,1,0
 21904,'I ',1,   7,   2,     9.500,     3.120,     0.000,     0.000,     0.000,     0.000,   5,0,0
 21904,'LD',1,   7,   1,     1.650,     0.330,     0.000,     0.000,     0.000,     0.000,   2,1,0
 21904,'MI',0,   7,   2,     4.000,     1.320,     0.000,     0.000,     0.000,     0.000,   5,0,0
 22208,'LD',1,   6,   1,    12.890,    -1.770,     0.000,     0.000,     0.000,     0.000,   2,1,0
 22404,'LD',1,   8,   1,     4.650,    -1.100,     0.000,     0.000,     0.000,     0.000,   2,1,0
 22501,'LD',1,  11,   1,     6.980,     2.300,     0.000,     0.000,     0.000,     0.000,   2,1,0
 22804,'LD',1,   2,   1,    10.880,    -1.500,     0.000,     0.000,     0.000,     0.000,   2,1,0
 23002,'LD',1,  11,   1,     3.110,    -0.050,     0.000,     0.000,     0.000,     0.000,   2,1,0
 23601,'LD',1,   4,   1,     3.990,     0.500,     0.000,     0.000,     0.000,     0.000,   2,1,0
 23604,'LD',1,   4,   1,    12.550,    -0.020,     0.000,     0.000,     0.000,     0.000,   2,1,0
 24202,'I ',1,  11,   2,   155.840,     6.970,     0.000,     0.000,     0.000,     0.000,   5,0,0
 24202,'MI',0,  11,   2,    27.970,     1.260,     0.000,     0.000,     0.000,     0.000,   5,0,0
 24804,'LD',1,  11,   1,    19.630,     0.160,     0.000,     0.000,     0.000,     0.000,   2,1,0
 25604,'LD',1,  11,   1,    13.910,    -3.820,     0.000,     0.000,     0.000,     0.000,   2,1,0
 25901,'LD',1,  11,   1,     6.070,    -0.210,     0.000,     0.000,     0.000,     0.000,   2,1,0
 26802,'I ',1,   3,   2,    11.420,     2.830,     0.000,     0.000,     0.000,     0.000,   5,0,0
 27004,'LD',1,  11,   1,    27.760,     8.970,     0.000,     0.000,     0.000,     0.000,   2,1,0
 27204,'LD',1,  11,   1,    18.150,    -1.380,     0.000,     0.000,     0.000,     0.000,   2,1,0
 27404,'LD',1,   9,   1,     6.850,     0.210,     0.000,     0.000,     0.000,     0.000,   2,1,0
 27604,'LD',1,  11,   1,    22.520,     2.560,     0.000,     0.000,     0.000,     0.000,   2,1,0
 27801,'LD',1,   2,   1,     3.900,     0.000,     0.000,     0.000,     0.000,     0.000,   2,1,0
 27804,'LD',1,   2,   1,    23.050,    -4.240,     0.000,     0.000,     0.000,     0.000,   2,1,0
 28201,'I ',1,   1,   2,    22.800,     7.490,     0.000,     0.000,     0.000,     0.000,   5,0,0
 28204,'LD',1,   1,   1,     6.550,     1.010,     0.000,     0.000,     0.000,     0.000,   2,1,0
 28601,'LD',1,  11,   1,    14.940,     0.110,     0.000,     0.000,     0.000,     0.000,   2,1,0
 28604,'LD',1,  11,   1,    16.840,    -2.130,     0.000,     0.000,     0.000,     0.000,   2,1,0
 28804,'LD',1,   5,   1,     8.040,     0.630,     0.000,     0.000,     0.000,     0.000,   2,1,0
 29304,'I ',1,  11,   2,     9.500,     3.120,     0.000,     0.000,     0.000,     0.000,   5,0,0
 29304,'LD',1,  11,   1,    12.500,     2.960,     0.000,     0.000,     0.000,     0.000,   2,1,0
 29304,'MI',0,  11,   2,     6.250,     0.880,     0.000,     0.000,     0.000,     0.000,   5,0,0
 29401,'LD',1,  11,   1,     6.250,     2.030,     0.000,     0.000,     0.000,     0.000,   2,1,0
 29501,'LD',1,  11,   1,     6.280,     0.950,     0.000,     0.000,     0.000,     0.000,   2,1,0
 30804,'LD',1,  11,   1,    20.390,     2.490,     0.000,     0.000,     0.000,     0.000,   2,1,0
 31004,'LD',1,   8,   1,    10.030,     3.000,     0.000,     0.000,     0.000,     0.000,   2,1,0
 32201,'LD',1,  10,   1,     4.490,     0.000,     0.000,     0.000,     0.000,     0.000,   2,1,0
 32204,'LD',1,  10,   1,    19.380,    -6.660,     0.000,     0.000,     0.000,     0.000,   2,1,0
 32291,'LD',1,  10,   1,     1.650,     0.330,     0.000,     0.000,     0.000,     0.000,   2,1,0
 32302,'I ',1,  11,   2,    35.640,     5.080,     0.000,     0.000,     0.000,     0.000,   5,0,0
 32302,'MI',0,  11,   2,     8.320,     1.180,     0.000,     0.000,     0.000,     0.000,   5,0,0
 32404,'LD',1,  11,   1,     9.630,    -1.380,     0.000,     0.000,     0.000,     0.000,   2,1,0
 32604,'LD',1,   9,   1,    15.180,    -0.960,     0.000,     0.000,     0.000,     0.000,   2,1,0
 32702,'I ',1,  11,   2,    21.780,     3.100,     0.000,     0.000,     0.000,     0.000,   5,0,0
 32702,'MI',0,  11,   2,    25.740,     3.670,     0.000,     0.000,     0.000,     0.000,   5,0,0
 33004,'LD',1,   5,   1,    15.650,    -3.840,     0.000,     0.000,     0.000,     0.000,   2,1,0
 33201,'I ',1,   7,   2,    23.660,    10.990,     0.000,     0.000,     0.000,     0.000,   5,0,0
 33201,'MI',0,   7,   2,     4.550,     1.810,     0.000,     0.000,     0.000,     0.000,   5,0,0
 33502,'I ',1,  11,   2,   116.850,    38.410,     0.000,     0.000,     0.000,     0.000,   5,0,0
 33502,'MI',0,  11,   2,    77.900,    25.600,     0.000,     0.000,     0.000,     0.000,   5,0,0
 33801,'I ',1,  11,   2,    10.190,     2.440,     0.000,     0.000,     0.000,     0.000,   5,0,0
 33801,'MI',0,  11,   2,     1.530,     1.560,     0.000,     0.000,     0.000,     0.000,   5,0,0
 34001,'LD',1,  12,   1,     5.680,     0.480,     0.000,     0.000,     0.000,     0.000,   2,1,0
 34301,'I ',1,  11,   2,    35.000,     5.620,     0.000,     0.000,     0.000,     0.000,   5,0,0
 34301,'MI',0,  11,   2,     8.430,     1.450,     0.000,     0.000,     0.000,     0.000,   5,0,0
 35004,'LD',1,   3,   1,     5.110,    -0.090,     0.000,     0.000,     0.000,     0.000,   2,1,0
 35404,'I ',1,   5,   2,    11.680,     3.840,     0.000,     0.000,     0.000,     0.000,   5,0,0
 35404,'LD',1,   5,   1,    33.730,    -0.020,     0.000,     0.000,     0.000,     0.000,   2,1,0
 35604,'LD',1,   7,   1,    10.970,     2.870,     0.000,     0.000,     0.000,     0.000,   2,1,0
 35804,'LD',1,   1,   1,    17.630,    -2.720,     0.000,     0.000,     0.000,     0.000,   2,1,0
 36001,'LD',1,  10,   1,     8.440,     1.120,     0.000,     0.000,     0.000,     0.000,   2,1,0
 36503,'I ',1,  11,   2,    66.000,     0.000,     0.000,     0.000,     0.000,     0.000,   5,0,0
 36503,'MI',0,  11,   2,    64.000,     0.000,     0.000,     0.000,     0.000,     0.000,   5,0,0
 36802,'I ',1,  11,   2,    35.890,     2.790,     0.000,     0.000,     0.000,     0.000,   5,0,0
 36802,'MI',0,  11,   2,    43.870,     3.400,     0.000,     0.000,     0.000,     0.000,   5,0,0
 37501,'LD',1,  11,   1,     7.080,    -0.820,     0.000,     0.000,     0.000,     0.000,   2,1,0
 37601,'LD',1,  11,   1,    10.300,    -0.850,     0.000,     0.000,     0.000,     0.000,   2,1,0
 37602,'I ',1,  11,   2,     4.580,     0.550,     0.000,     0.000,     0.000,     0.000,   5,0,0
 37602,'MI',0,  11,   2,     5.860,     2.450,     0.000,     0.000,     0.000,     0.000,   5,0,0
 38001,'LD',1,  10,   1,     8.480,     1.450,     0.000,     0.000,     0.000,     0.000,   2,1,0
 38004,'LD',1,  10,   1,    15.630,     1.550,     0.000,     0.000,     0.000,     0.000,   2,1,0
 38204,'LD',1,   7,   1,    17.310,     2.650,     0.000,     0.000,     0.000,     0.000,   2,1,0
 38601,'LD',1,  11,   1,     2.480,    -0.500,     0.000,     0.000,     0.000,     0.000,   2,1,0
 38701,'LD',1,  11,   1,     3.580,    -0.700,     0.000,     0.000,     0.000,     0.000,   2,1,0
 38804,'LD',1,   6,   1,     9.630,     4.780,     0.000,     0.000,     0.000,     0.000,   2,1,0
 39104,'I ',1,  11,   2,    23.750,     7.810,     0.000,     0.000,     0.000,     0.000,   5,0,0
 39204,'I ',1,  11,   2,    29.450,     9.680,     0.000,     0.000,     0.000,     0.000,   5,0,0
 39601,'LD',1,  10,   1,     4.330,     0.000,     0.000,     0.000,     0.000,     0.000,   2,1,0
 39801,'I ',1,   5,   2,    21.500,    12.100,     0.000,     0.000,     0.000,     0.000,   5,0,0
 40001,'LD',1,   3,   1,     5.430,    -0.570,     0.000,     0.000,     0.000,     0.000,   2,1,0
 40004,'LD',1,   3,   1,    11.960,    -2.720,     0.000,     0.000,     0.000,     0.000,   2,1,0
 40102,'I ',1,  11,   2,    58.410,     8.320,     0.000,     0.000,     0.000,     0.000,   5,0,0
 40102,'MI',0,  11,   2,   129.690,    18.480,     0.000,     0.000,     0.000,     0.000,   5,0,0
 40204,'LD',1,   5,   1,     8.090,     0.200,     0.000,     0.000,     0.000,     0.000,   2,1,0
 40404,'LD',1,   2,   1,    13.490,    -0.720,     0.000,     0.000,     0.000,     0.000,   2,1,0
 40602,'I ',1,   7,   2,     4.460,     1.330,     0.000,     0.000,     0.000,     0.000,   5,0,0
 40602,'LD',1,   7,   1,     2.280,    -0.490,     0.000,     0.000,     0.000,     0.000,   2,1,0
 40602,'MI',0,   7,   2,     0.830,     0.170,     0.000,     0.000,     0.000,     0.000,   5,0,0
 40801,'LD',1,  11,   1,     7.310,     0.620,     0.000,     0.000,     0.000,     0.000,   2,1,0
 41002,'I ',1,  11,   2,    32.000,     6.210,     0.000,     0.000,     0.000,     0.000,   5,0,0
 41002,'MI',0,  11,   2,    12.140,     2.520,     0.000,     0.000,     0.000,     0.000,   5,0,0
 41102,'I ',1,  11,   2,    43.000,     7.170,     0.000,     0.000,     0.000,     0.000,   5,0,0
 41102,'MI',0,  11,   2,    20.100,     3.500,     0.000,     0.000,     0.000,     0.000,   5,0,0
 42004,'LD',1,  11,   1,    14.990,    -1.300,     0.000,     0.000,     0.000,     0.000,   2,1,0
 42101,'LD',1,  11,   1,    10.760,    -0.990,     0.000,     0.000,     0.000,     0.000,   2,1,0
 42204,'LD',1,   7,   1,    17.720,     2.260,     0.000,     0.000,     0.000,     0.000,   2,1,0
 42604,'LD',1,   8,   1,    11.380,     1.990,     0.000,     0.000,     0.000,     0.000,   2,1,0
 42802,'I ',1,  11,   2,    11.110,     2.630,     0.000,     0.000,     0.000,     0.000,   5,0,0
 42802,'MI',0,  11,   2,    14.890,     5.370,     0.000,     0.000,     0.000,     0.000,   5,0,0
 43604,'LD',1,   5,   1,    10.540,    -1.690,     0.000,     0.000,     0.000,     0.000,   2,1,0
 44001,'LD',1,  11,   1,     7.770,    -0.510,     0.000,     0.000,     0.000,     0.000,   2,1,0
 44804,'LD',1,  11,   1,    15.560,    -3.760,     0.000,     0.000,     0.000,     0.000,   2,1,0
 44901,'LD',1,  11,   1,     3.490,    -0.800,     0.000,     0.000,     0.000,     0.000,   2,1,0
 45001,'I ',1,   7,   2,    18.000,     5.900,     0.000,     0.000,     0.000,     0.000,   5,0,0
 45001,'MI',0,   7,   2,    29.500,     4.100,     0.000,     0.000,     0.000,     0.000,   5,0,0
 45101,'LD',1,  11,   1,     7.270,     0.000,     0.000,     0.000,     0.000,     0.000,   2,1,0
 46210,'I ',1,  11,   2,    34.840,    14.000,     0.000,     0.000,     0.000,     0.000,   5,0,0
 46214,'I ',1,  11,   2,    34.840,    14.000,     0.000,     0.000,     0.000,     0.000,   5,0,0
 46224,'I ',1,  11,   2,    34.840,    14.000,     0.000,     0.000,     0.000,     0.000,   5,0,0
 46501,'LD',1,  11,   1,     7.140,     2.330,     0.000,     0.000,     0.000,     0.000,   2,1,0
...
0 / END OF LOAD DATA, BEGIN FIXED SHUNT DATA
  3934,'1 ',1,     0.000,     6.000
  3944,'1 ',1,     0.000,     6.000
  3954,'1 ',1,     0.000,     6.000
 13124,'1 ',1,     0.000,    10.000
 27361,'1 ',1,     0.000,     1.200
 33902,'1 ',1,     0.000,     6.000
 54630,'1 ',1,     0.000,   105.000
 54640,'1 ',1,     0.000,    41.000
0 / END OF FIXED SHUNT DATA, BEGIN GENERATOR DATA
  1243,'1 ',   665.000,     0.000,    25.000,  -325.000,1.00000,  3202,   790.000, 0.00000E+0, 9.50000E-1, 0.00000E+0, 0.00000E+0,1.00000,0,  100.0,   700.000,  -700.000,  49,1.0000
 10271,'1 ',    20.000,    -7.000,    15.000,    -7.000,1.00000,  1021,    34.000, 0.00000E+0, 2.20000E-1, 0.00000E+0, 0.00000E+0,1.00000,1,   15.0,    21.000,     5.000,  13,1.0000
 10272,'2 ',    20.000,    -7.000,    15.000,    -7.000,1.00000,  1021,    34.000, 0.00000E+0, 2.20000E-1, 0.00000E+0, 0.00000E+0,1.00000,1,   15.0,    22.000,     5.000,  13,1.0000
 10273,'3 ',    10.000,    -7.000,    15.000,    -7.000,1.00000,  1021,    34.000, 0.00000E+0, 2.20000E-1, 0.00000E+0, 0.00000E+0,1.00000,1,   15.0,    19.000,     5.000,  13,1.0000
 10274,'4 ',    20.000,    -7.000,    15.000,    -7.000,1.00000,  1021,    34.000, 0.00000E+0, 2.20000E-1, 0.00000E+0, 0.00000E+0,1.00000,1,   15.0,    24.000,     5.000,  13,1.0000
 10275,'3 ',     7.125,     0.000,     0.000,     0.000,1.04000,     0,     8.350, 9.20000E-3, 2.00000E-1, 0.00000E+0, 0.00000E+0,1.00000,0,  100.0,     7.500,     0.000,  21,1.0000,    ,      ,    ,      ,    ,      ,3,-0.9800
 10276,'2 ',     0.627,     0.000,     0.000,     0.000,1.04000,     0,     0.850, 7.30000E-3, 2.00000E-1, 0.00000E+0, 0.00000E+0,1.00000,0,  100.0,     0.660,     0.000,  21,1.0000,    ,      ,    ,      ,    ,      ,3,-0.9800
 10277,'1 ',     3.800,     0.000,     0.000,     0.000,1.00000,     0,     4.800, 0.00000E+0, 8.33000E-1, 0.00000E+0, 6.00000E-2,1.00000,0,  100.0,     4.000,     0.000,  23,1.0000,    ,      ,    ,      ,    ,      ,3,-0.9800
 10371,'1 ',   109.250,     0.000,    38.000,   -38.000,1.00000,  1031,   115.000, 2.20000E-3, 8.33000E-1, 0.00000E+0, 0.00000E+0,1.00000,0,  100.0,   115.000,     0.000,  17,1.0000,    ,      ,    ,      ,    ,      ,1, 1.0000
 10401,'1 ',    18.050,     0.000,     0.000,     0.000,1.00000,     0,    20.000, 4.00000E-3, 8.33000E-1, 0.00000E+0, 0.00000E+0,1.00000,0,  100.0,    19.000,   -19.000,  14,1.0000,    ,      ,    ,      ,    ,      ,3,-0.9800
 10470,'1 ',   449.000,  -122.417,   270.000,  -170.000,1.00000,  1042,   500.000, 2.70000E-3, 1.80000E-1, 0.00000E+0, 0.00000E+0,1.00000,1,  270.0,   456.690,   222.000,   9,1.0000
 10471,'1 ',   151.050,     0.000,    40.000,   -30.000,1.00000,  1042,   167.000, 0.00000E+0, 8.33000E-1, 0.00000E+0, 0.00000E+0,1.00000,0,  100.0,   159.000,  -159.000,  14,1.0000,    ,      ,    ,      ,    ,      ,1, 1.0000
 10472,'11',    85.500,     0.000,    60.000,   -30.000,1.00000,  1042,   100.900, 0.00000E+0, 1.25000E-1, 0.00000E+0, 0.00000E+0,1.00000,0,   60.0,    90.000,    13.000,   9,1.0000
 10473,'12',    85.500,     0.000,    60.000,   -30.000,1.00000,  1042,   100.900, 0.00000E+0, 1.25000E-1, 0.00000E+0, 0.00000E+0,1.00000,0,   60.0,    90.000,    13.000,   9,1.0000
 10474,'14',    85.500,     0.000,    60.000,   -30.000,1.00000,  1042,   100.900, 0.00000E+0, 1.25000E-1, 0.00000E+0, 0.00000E+0,1.00000,0,   60.0,    90.000,    13.000,   9,1.0000
 10671,'2 ',     4.560,    -1.940,    -1.940,    -1.940,1.04000,     0,     4.800, 2.04000E-2, 1.66000E-1, 0.00000E+0, 0.00000E+0,1.00000,0,  100.0,     4.800,     0.000,  20,1.0000,    ,      ,    ,      ,    ,      ,3,-0.9800
 10672,'3 ',     4.750,    -2.000,    -2.000,    -2.000,1.04000,     0,     6.000, 2.04000E-2, 1.66000E-1, 0.00000E+0, 0.00000E+0,1.00000,0,  100.0,     5.000,     0.000,  20,1.0000,    ,      ,    ,      ,    ,      ,3,-0.9800
 10673,'1 ',     1.140,    -0.480,    -0.480,    -0.480,1.04000,     0,     1.200, 2.04000E-2, 1.66000E-1, 0.00000E+0, 0.00000E+0,1.00000,0,  100.0,     1.200,     0.000,  20,1.0000,    ,      ,    ,      ,    ,      ,3,-0.9800
 10674,'5 ',     4.370,     0.000,    -1.770,    -2.300,1.04000,     0,     4.600, 2.57000E-2, 1.66000E-1, 0.00000E+0, 0.00000E+0,1.00000,0,  100.0,     4.600,     0.000,  20,1.0000,    ,      ,    ,      ,    ,      ,3,-0.9800
 10811,'1 ',     3.800,     0.000,     0.000,     0.000,1.00000,     0,     4.000, 9.00000E-3, 8.33000E-1, 0.00000E+0, 0.00000E+0,1.00000,0,  100.0,     4.000,     0.000,  23,1.0000,    ,      ,    ,      ,    ,      ,3,-0.9800
 10872,'1 ',     3.800,     0.000,     0.000,     0.000,1.00000,     0,     4.000, 9.00000E-3, 8.33000E-1, 0.00000E+0, 0.00000E+0,1.00000,0,  100.0,     4.000,     0.000,  23,1.0000,    ,      ,    ,      ,    ,      ,3,-0.9800
 11204,'1 ',     0.950,     0.000,    -0.810,    -0.810,1.00000,     0,     1.600, 0.00000E+0, 2.00000E-1, 1.00000E-2, 6.00000E-2,1.00000,0,  100.0,     1.000,     0.000,  15,1.0000
 11262,'1 ',   760.000,     0.000,   200.000,  -100.000,1.00000,  1122,   800.000, 3.20000E-3, 8.33000E-1, 0.00000E+0, 1.00000E-1,1.00000,0,  100.0,   800.000,     0.000,  16,1.0000,    ,      ,    ,      ,    ,      ,1, 1.0000
 11271,'1 ',    23.940,     0.000,     0.000,     0.000,1.04000,     0,    28.000, 3.20000E-3, 2.00000E-1, 0.00000E+0, 0.00000E+0,1.00000,0,  100.0,    25.200,     0.000,  20,1.0000,    ,      ,    ,      ,    ,      ,3,-0.9800
 11272,'1 ',     3.800,     0.000,     0.000,     0.000,1.00000,     0,     4.170, 2.54000E-1, 8.33000E-1, 0.00000E+0, 0.00000E+0,1.00000,0,  100.0,     4.000,     0.000,  23,1.0000,    ,      ,    ,      ,    ,      ,3,-0.9800
 11273,'1 ',    37.991,     0.000,     8.000,    -8.000,1.00000,     0,    42.000, 2.00000E-3, 8.33000E-1, 0.00000E+0, 0.00000E+0,1.00000,0,  100.0,    39.990,     0.000,  19,1.0000,    ,      ,    ,      ,    ,      ,3,-0.9800
 11274,'1 ',     9.500,     0.000,     2.000,    -2.000,1.00000,     0,    10.000, 3.00000E-4, 8.33000E-1, 0.00000E+0, 0.00000E+0,1.00000,0,  100.0,    10.000,     0.000,  23,1.0000,    ,      ,    ,      ,    ,      ,3,-0.9800
 11275,'1 ',    20.900,     0.000,     7.300,    -7.300,1.00000,     0,    25.050, 9.20000E-3, 8.33000E-1, 0.00000E+0, 6.00000E-2,1.00000,0,    7.0,    22.000,     0.000,  23,1.0000,    ,      ,    ,      ,    ,      ,1, 1.0000
 11303,'1 ',    10.450,     0.000,    10.000,    -8.000,1.00000,  1131,    12.000, 3.20000E-3, 8.33000E-1, 0.00000E+0, 1.00000E-1,1.00000,0,    6.0,    11.000,   -11.000,  14,1.0000,    ,      ,    ,      ,    ,      ,1, 1.0000
 11371,'1 ',    32.632,     0.000,    13.000,   -18.000,1.00000,  1131,    34.350, 7.10000E-3, 2.00000E-1, 0.00000E+0, 0.00000E+0,1.00000,0,   11.0,    34.350,     0.000,  17,1.0000,    ,      ,    ,      ,    ,      ,1, 1.0000
 11372,'1 ',    21.993,     0.000,     6.155,    -6.155,1.00000,  1131,    23.150, 3.20000E-3, 2.00000E-1, 0.00000E+0, 0.00000E+0,1.00000,0,    6.0,    23.150,     0.000,  17,1.0000,    ,      ,    ,      ,    ,      ,1, 1.0000
 11412,'1 ',     3.800,     0.000,    -0.810,    -0.810,1.00000,     0,     4.000, 2.52000E-2, 8.33000E-1, 0.00000E+0, 0.00000E+0,1.00000,0,  100.0,     4.000,     0.000,  23,1.0000,    ,      ,    ,      ,    ,      ,3,-0.9800
 11424,'1 ',     3.800,     0.000,    -0.810,    -0.810,1.00000,     0,     4.000, 2.52000E-2, 8.33000E-1, 0.00000E+0, 0.00000E+0,1.00000,0,  100.0,     4.000,     0.000,  23,1.0000,    ,      ,    ,      ,    ,      ,3,-0.9800
 11471,'1 ',     0.855,     0.000,     0.000,     0.000,1.00000,     0,     1.000, 3.20000E-3, 8.33000E-1, 0.00000E+0, 6.00000E-2,1.00000,0,  100.0,     0.900,     0.000,  19,1.0000,    ,      ,    ,      ,    ,      ,3,-0.9800
 11474,'1 ',     4.750,     0.000,    -1.000,    -1.000,1.00000,     0,     5.000, 1.52000E-3, 8.33000E-1, 0.00000E+0, 0.00000E+0,1.00000,0,  100.0,     5.000,     0.000,  20,1.0000,    ,      ,    ,      ,    ,      ,3,-0.9800
 11571,'1 ',    47.500,     0.000,    20.000,     0.000,1.00000,     0,    50.000, 3.20000E-3, 8.33000E-1, 0.00000E+0, 0.00000E+0,1.00000,0,  100.0,    50.000,     0.000,  23,1.0000,    ,      ,    ,      ,    ,      ,1, 1.0000
 12101,'XX',     0.000,   -94.492,   100.000,  -100.000,1.00000,  1211,   100.000, 0.00000E+0, 8.33000E-1, 0.00000E+0, 0.00000E+0,1.00000,1,  100.0,     0.000,     0.000,  25,1.0000,    ,      ,    ,      ,    ,      ,1, 1.0000
 12171,'1 ',    76.000,     0.000,    25.000,   -25.000,1.00000,     0,    80.000, 0.00000E+0, 8.33000E-1, 0.00000E+0, 0.00000E+0,1.00000,0,  100.0,    80.000,   -80.000,   1,1.0000,    ,      ,    ,      ,    ,      ,1, 1.0000
 12271,'1 ',     4.740,     0.000,     0.000,     0.000,1.00000,     0,     4.990, 2.00000E-1, 8.33000E-1, 0.00000E+0, 0.00000E+0,1.00000,0,  100.0,     4.990,     0.000,  23,1.0000,    ,      ,    ,      ,    ,      ,3,-0.9800
 12371,'1 ',    29.925,     0.000,     7.000,    -7.000,1.00000,  1231,    32.000, 2.57000E-2, 8.33000E-1, 0.00000E+0, 0.00000E+0,1.00000,0,    7.0,    31.500,     0.000,  17,1.0000,    ,      ,    ,      ,    ,      ,1, 1.0000
 12372,'2 ',     9.975,     0.000,     3.000,    -3.000,1.00000,  1231,    10.500, 2.57000E-2, 8.33000E-1, 0.00000E+0, 0.00000E+0,1.00000,0,  100.0,    10.500,     0.000,  17,1.0000,    ,      ,    ,      ,    ,      ,1, 1.0000
 12571,'1 ',    18.478,     0.000,     0.000,     0.000,1.00000,  1251,    21.710, 9.20000E-3, 2.00000E-1, 0.00000E+0, 0.00000E+0,1.00000,0,  100.0,    19.450,     0.000,  17,1.0000,    ,      ,    ,      ,    ,      ,1, 1.0000
 12572,'1 ',    11.400,     0.000,     0.986,    -0.986,1.00000,  1251,    12.000, 2.52000E-2, 8.33000E-1, 0.00000E+0, 0.00000E+0,1.00000,0,  100.0,    12.000,     0.000,  17,1.0000,    ,      ,    ,      ,    ,      ,3,-0.9800
 12574,'1 ',    12.729,     0.000,    -1.360,    -1.360,1.00000,     0,    14.000, 3.20000E-3, 8.33000E-1, 0.00000E+0, 0.00000E+0,1.00000,0,  100.0,    13.399,     0.000,  17,1.0000,    ,      ,    ,      ,    ,      ,3,-0.9800
 12575,'1 ',    14.250,     0.000,     0.000,     0.000,1.00000,  1251,    15.100, 3.20000E-3, 8.33000E-1, 0.00000E+0, 0.00000E+0,1.00000,0,  100.0,    15.000,     0.000,  20,1.0000,    ,      ,    ,      ,    ,      ,3,-0.9800
 12576,'1 ',     9.690,     0.000,     0.000,     0.000,1.00000,     0,    10.200, 3.20000E-3, 8.33000E-1, 0.00000E+0, 0.00000E+0,1.00000,0,  100.0,    10.200,     0.000,  20,1.0000,    ,      ,    ,      ,    ,      ,3,-0.9800
 12577,'1 ',     3.990,     0.000,     0.000,     0.000,1.00000,     0,     5.000, 3.20000E-3, 8.33000E-1, 0.00000E+0, 0.00000E+0,1.00000,0,  100.0,     4.200,     0.000,  17,1.0000,    ,      ,    ,      ,    ,      ,3,-0.9800
 12602,'1 ',    95.000,     0.000,    33.000,   -33.000,1.00000,     0,   100.000, 4.20000E-3, 1.30600E-1, 0.00000E+0, 0.00000E+0,1.00000,0,  100.0,   100.000,     0.000,   9,1.0000
 12771,'1 ',     9.500,     0.000,     0.000,     0.000,1.00000,     0,    10.000, 8.80000E-3, 8.33000E-1, 0.00000E+0, 0.00000E+0,1.00000,0,  100.0,    10.000,     0.000,  23,1.0000,    ,      ,    ,      ,    ,      ,3,-0.9800
 12772,'1 ',     6.783,     0.000,     0.000,     0.000,1.00000,     0,    10.000, 8.80000E-3, 8.33000E-1, 0.00000E+0, 0.00000E+0,1.00000,0,  100.0,     7.140,     0.000,  23,1.0000,    ,      ,    ,      ,    ,      ,3,-0.9800
 12872,'DW',     7.980,     0.000,     0.000,    -2.761,1.00000,     0,     9.200, 2.57000E-2, 2.00000E-1, 0.00000E+0, 0.00000E+0,1.00000,0,  100.0,     8.400,     0.000,  20,1.0000,    ,      ,    ,      ,    ,      ,3,-0.9800
 12873,'1 ',    18.573,     0.000,     0.000,     0.000,1.00000,     0,    20.700, 2.57000E-2, 2.00000E-1, 0.00000E+0, 0.00000E+0,1.00000,0,  100.0,    19.550,     0.000,  20,1.0000,    ,      ,    ,      ,    ,      ,3,-0.9800
 12874,'1 ',     8.075,     0.000,     0.000,     0.000,1.00000,     0,     8.500, 2.10000E-3, 1.66000E-1, 0.00000E+0, 0.00000E+0,1.00000,0,  100.0,     8.500,     0.000,  20,1.0000,    ,      ,    ,      ,    ,      ,3,-0.9800
 13011,'1 ',     7.600,     0.000,     0.000,     0.000,1.00000,     0,     8.500, 2.00000E-2, 8.33000E-1, 0.00000E+0, 0.00000E+0,1.00000,0,  100.0,     8.000,     0.000,  23,1.0000,    ,      ,    ,      ,    ,      ,3,-0.9800
 13072,'1 ',     9.405,     0.000,     2.000,    -2.000,1.00000,     0,    10.000, 3.00000E-4, 8.33000E-1, 0.00000E+0, 0.00000E+0,1.00000,0,  100.0,     9.900,     0.000,  23,1.0000,    ,      ,    ,      ,    ,      ,3,-0.9800
 13170,'1 ',    33.678,     0.000,    -3.570,    -3.570,1.00000,     0,    35.500, 2.57000E-2, 8.33000E-1, 0.00000E+0, 0.00000E+0,1.00000,0,  100.0,    35.450,     0.000,  19,1.0000,    ,      ,    ,      ,    ,      ,2, 0.9600
 13171,'1 ',    17.575,     0.000,    -1.010,    -1.010,1.00000,     0,    18.800, 9.00000E-3, 2.00000E-1, 0.00000E+0, 0.00000E+0,1.00000,0,  100.0,    18.500,     0.000,  20,1.0000,    ,      ,    ,      ,    ,      ,3,-0.9800
 13172,'1 ',     3.610,     0.000,    -1.030,    -1.030,1.00000,     0,     4.000, 3.20000E-3, 8.33000E-1, 0.00000E+0, 0.00000E+0,1.00000,0,  100.0,     3.800,     0.000,  19,1.0000,    ,      ,    ,      ,    ,      ,3,-0.9800
 13271,'1 ',     4.749,     0.000,     0.000,     0.000,1.04000,     0,     5.000, 0.00000E+0, 1.54000E-1, 0.00000E+0, 0.00000E+0,1.00000,0,  100.0,     4.999,     2.000,  15,1.0000,    ,      ,    ,      ,    ,      ,3,-0.9800
 13371,'1 ',    57.000,     0.000,    20.000,   -20.000,1.00000,  1331,    61.000, 8.80000E-3, 8.33000E-1, 0.00000E+0, 0.00000E+0,1.00000,0,   30.0,    60.000,     0.000,  23,1.0000,    ,      ,    ,      ,    ,      ,1, 1.0000
 13434,'10',     4.085,     0.000,     0.000,     0.000,1.00000,     0,     4.500, 0.00000E+0, 2.00000E-1, 0.00000E+0, 1.00000E-1,1.00000,0,  100.0,     4.300,     0.000,  13,1.0000,    ,      ,    ,      ,    ,      ,3,-0.9800
 13471,'1 ',     0.627,     0.000,    -0.220,    -0.220,1.00000,     0,     0.660, 2.04000E-2, 2.00000E-1, 0.00000E+0, 0.00000E+0,1.00000,0,  100.0,     0.660,     0.000,  22,1.0000,    ,      ,    ,      ,    ,      ,3,-0.9800
 13472,'DW',     2.422,     0.000,    -0.720,    -0.720,1.00000,     0,     2.700, 3.02000E-2, 8.33000E-1, 0.00000E+0, 0.00000E+0,1.00000,0,  100.0,     2.550,     0.000,  21,1.0000,    ,      ,    ,      ,    ,      ,3,-0.9800
 13473,'4 ',     9.491,     0.000,     0.000,     0.000,1.00000,     0,    15.100, 3.20000E-3, 2.00000E-1, 0.00000E+0, 0.00000E+0,1.00000,0,  100.0,     9.990,     0.000,  20,1.0000,    ,      ,    ,      ,    ,      ,3,-0.9800
 13474,'1 ',     5.700,     0.000,     0.000,     0.000,1.00000,     0,     6.900, 2.57000E-2, 8.33000E-1, 0.00000E+0, 0.00000E+0,1.00000,0,  100.0,     6.000,     0.000,  18,1.0000,    ,      ,    ,      ,    ,      ,3,-0.9800
 13475,'6 ',     7.267,     0.000,     0.000,     0.000,1.00000,  1701,     7.680, 3.20000E-3, 2.00000E-1, 0.00000E+0, 0.00000E+0,1.00000,0,  100.0,     7.650,     0.000,  21,1.0000,    ,      ,    ,      ,    ,      ,3,-0.9800
 13476,'3 ',    11.305,     0.000,    -3.260,    -3.260,1.00000,     0,    12.000, 2.57000E-2, 8.33000E-1, 0.00000E+0, 0.00000E+0,1.00000,0,  100.0,    11.900,     0.000,  21,1.0000,    ,      ,    ,      ,    ,      ,3,-0.9800
 13477,'2 ',     2.422,     0.000,    -0.720,    -0.720,1.00000,     0,     2.700, 3.02000E-2, 8.33000E-1, 0.00000E+0, 0.00000E+0,1.00000,0,  100.0,     2.550,     0.000,  21,1.0000,    ,      ,    ,      ,    ,      ,3,-0.9800
 13478,'1 ',     2.850,     0.000,     0.000,     0.000,1.00000,     0,     3.000, 3.20000E-3, 8.33000E-1, 0.00000E+0, 0.00000E+0,1.00000,0,  100.0,     3.000,     0.000,  20,1.0000,    ,      ,    ,      ,    ,      ,3,-0.9800
 13479,'9 ',     3.230,     0.000,     0.000,     0.000,1.00000,     0,     3.400, 7.30000E-3, 8.33000E-1, 0.00000E+0, 0.00000E+0,1.00000,0,  100.0,     3.400,     0.000,  20,1.0000,    ,      ,    ,      ,    ,      ,3,-0.9800
 13671,'1 ',     5.510,     0.000,     0.000,     0.000,1.00000,     0,     5.800, 2.00000E-1, 8.33000E-1, 0.00000E+0, 0.00000E+0,1.00000,0,  100.0,     5.800,     0.000,  23,1.0000,    ,      ,    ,      ,    ,      ,3,-0.9800
 13871,'1 ',     4.702,     0.000,     0.000,     0.000,1.00000,     0,     5.000, 8.80000E-3, 8.33000E-1, 0.00000E+0, 0.00000E+0,1.00000,0,  100.0,     4.950,     0.000,  23,1.0000,    ,      ,    ,      ,    ,      ,3,-0.9800
 13872,'1 ',     1.900,     0.000,     0.000,     0.000,1.00000,     0,     2.000, 1.00000E-4, 8.33000E-1, 0.00000E+0, 0.00000E+0,1.00000,0,  100.0,     2.000,     0.000,  21,1.0000,    ,      ,    ,      ,    ,      ,3,-0.9800
 13873,'1 ',     2.375,     0.000,     0.000,     0.000,1.00000,     0,     2.500, 1.00000E-4, 8.33000E-1, 0.00000E+0, 0.00000E+0,1.00000,0,  100.0,     2.500,     0.000,  23,1.0000,    ,      ,    ,      ,    ,      ,3,-0.9800
 13904,'1 ',    52.250,     0.000,    17.000,   -10.000,1.00000,     0,    57.000, 1.87000E-3, 1.87000E-1, 0.00000E+0, 0.00000E+0,1.00000,0,  100.0,    55.000,     0.000,   9,1.0000
 13904,'2 ',    52.250,     0.000,    17.000,   -10.000,1.00000,     0,    57.000, 1.87000E-3, 1.87000E-1, 0.00000E+0, 0.00000E+0,1.00000,0,  100.0,    55.000,     0.000,   9,1.0000
 13914,'1 ',    52.250,     0.000,    17.000,   -10.000,1.00000,     0,    57.000, 1.87000E-3, 1.80700E-1, 0.00000E+0, 0.00000E+0,1.00000,0,  100.0,    55.000,     0.000,   9,1.0000
 13914,'2 ',    52.250,     0.000,    17.000,   -10.000,1.00000,     0,    57.000, 1.87000E-3, 1.80700E-1, 0.00000E+0, 0.00000E+0,1.00000,0,  100.0,    55.000,     0.000,   9,1.0000
 13914,'3 ',    52.250,     0.000,    17.000,   -10.000,1.00000,     0,    57.000, 1.87000E-3, 1.80700E-1, 0.00000E+0, 0.00000E+0,1.00000,0,  100.0,    55.000,     0.000,   9,1.0000
 14073,'3 ',     6.128,    -2.400,    -2.400,    -2.400,1.04000,     0,     7.611, 2.04000E-2, 1.66000E-1, 0.00000E+0, 0.00000E+0,1.00000,0,  100.0,     6.450,     0.000,  20,1.0000,    ,      ,    ,      ,    ,      ,3,-0.9800
 14075,'OC',     9.500,     0.000,     0.000,     0.000,1.00000,     0,    10.000, 0.00000E+0, 1.55000E-1, 0.00000E+0, 0.00000E+0,1.00000,0,  100.0,    10.000,     1.000,  26,1.0000,    ,      ,    ,      ,    ,      ,3,-0.9800
 14078,'1 ',     2.375,     0.000,     0.000,     0.000,1.00000,     0,     2.600, 3.20000E-3, 8.33000E-1, 0.00000E+0, 6.00000E-2,1.00000,0,  100.0,     2.500,     0.000,  19,1.0000,    ,      ,    ,      ,    ,      ,3,-0.9800
 14078,'2 ',     1.235,     0.000,     0.000,     0.000,1.00000,     0,     1.300, 3.20000E-3, 8.33000E-1, 0.00000E+0, 6.00000E-2,1.00000,0,  100.0,     1.300,     0.000,  19,1.0000,    ,      ,    ,      ,    ,      ,3,-0.9800
 14078,'3 ',     1.130,     0.000,     0.000,     0.000,1.00000,     0,     1.300, 3.20000E-3, 8.33000E-1, 0.00000E+0, 6.00000E-2,1.00000,0,  100.0,     1.190,     0.000,  19,1.0000,    ,      ,    ,      ,    ,      ,3,-0.9800
 14304,'1 ',     7.125,     0.000,     1.730,    -1.730,1.05000,     0,     8.500, 0.00000E+0, 1.50000E-1, 0.00000E+0, 1.00000E-1,1.00000,0,  100.0,     7.500,     2.000,  15,1.0000,    ,      ,    ,      ,    ,      ,3,-0.9800
 14371,'1 ',     4.740,     0.000,     0.000,     0.000,1.00000,     0,     5.000, 8.40000E-3, 8.33000E-1, 0.00000E+0, 0.00000E+0,1.00000,0,  100.0,     4.990,     0.000,  23,1.0000
 14372,'1 ',    33.250,     0.000,     0.000,     0.000,1.00000,     0,    36.000, 2.52000E-2, 8.33000E-1, 0.00000E+0, 0.00000E+0,1.00000,0,  100.0,    35.000,     0.000,  23,1.0000,    ,      ,    ,      ,    ,      ,3,-0.9800
 14373,'1 ',    42.750,     0.000,     0.000,     0.000,1.00000,     0,    46.875, 9.00000E-3, 8.33000E-1, 0.00000E+0, 6.00000E-2,1.00000,0,  100.0,    45.000,     0.000,  19,1.0000,    ,      ,    ,      ,    ,      ,3,-0.9800
 14424,'1 ',     4.702,     0.000,     0.000,     0.000,1.00000,     0,     5.000, 3.20000E-3, 8.33000E-1, 0.00000E+0, 0.00000E+0,1.00000,0,  100.0,     4.950,     0.000,  23,1.0000,    ,      ,    ,      ,    ,      ,3,-0.9800
 14424,'2 ',     4.702,     0.000,     0.000,     0.000,1.00000,     0,     5.000, 3.20000E-3, 8.33000E-1, 0.00000E+0, 0.00000E+0,1.00000,0,  100.0,     4.950,     0.000,  23,1.0000,    ,      ,    ,      ,    ,      ,3,-0.9800
...